*SPEF "ieee 1481-1999"
*DESIGN "user_project_wrapper"
*DATE "11:11:11 Fri 11 11, 1111"
*VENDOR "OpenRCX"
*PROGRAM "Parallel Extraction"
*VERSION "1.0"
*DESIGN_FLOW "NAME_SCOPE LOCAL" "PIN_CAP NONE"
*DIVIDER /
*DELIMITER :
*BUS_DELIMITER []
*T_UNIT 1 NS
*C_UNIT 1 PF
*R_UNIT 1 OHM
*L_UNIT 1 HENRY

*NAME_MAP
*1 io_in[0]
*2 io_in[10]
*3 io_in[11]
*4 io_in[12]
*5 io_in[13]
*6 io_in[14]
*7 io_in[15]
*8 io_in[16]
*9 io_in[17]
*10 io_in[18]
*11 io_in[19]
*12 io_in[1]
*13 io_in[20]
*14 io_in[21]
*15 io_in[22]
*16 io_in[23]
*17 io_in[24]
*18 io_in[25]
*19 io_in[26]
*20 io_in[27]
*21 io_in[28]
*22 io_in[29]
*23 io_in[2]
*24 io_in[30]
*25 io_in[31]
*26 io_in[32]
*27 io_in[33]
*28 io_in[34]
*29 io_in[35]
*30 io_in[36]
*31 io_in[37]
*32 io_in[3]
*33 io_in[4]
*34 io_in[5]
*35 io_in[6]
*36 io_in[7]
*37 io_in[8]
*38 io_in[9]
*39 io_oeb[0]
*40 io_oeb[10]
*41 io_oeb[11]
*42 io_oeb[12]
*43 io_oeb[13]
*44 io_oeb[14]
*45 io_oeb[15]
*46 io_oeb[16]
*47 io_oeb[17]
*48 io_oeb[18]
*49 io_oeb[19]
*50 io_oeb[1]
*51 io_oeb[20]
*52 io_oeb[21]
*53 io_oeb[22]
*54 io_oeb[23]
*55 io_oeb[24]
*56 io_oeb[25]
*57 io_oeb[26]
*58 io_oeb[27]
*59 io_oeb[28]
*60 io_oeb[29]
*61 io_oeb[2]
*62 io_oeb[30]
*63 io_oeb[31]
*64 io_oeb[32]
*65 io_oeb[33]
*66 io_oeb[34]
*67 io_oeb[35]
*68 io_oeb[36]
*69 io_oeb[37]
*70 io_oeb[3]
*71 io_oeb[4]
*72 io_oeb[5]
*73 io_oeb[6]
*74 io_oeb[7]
*75 io_oeb[8]
*76 io_oeb[9]
*77 io_out[0]
*78 io_out[10]
*79 io_out[11]
*80 io_out[12]
*81 io_out[13]
*82 io_out[14]
*83 io_out[15]
*84 io_out[16]
*85 io_out[17]
*86 io_out[18]
*87 io_out[19]
*88 io_out[1]
*89 io_out[20]
*90 io_out[21]
*91 io_out[22]
*92 io_out[23]
*93 io_out[24]
*94 io_out[25]
*95 io_out[26]
*96 io_out[27]
*97 io_out[28]
*98 io_out[29]
*99 io_out[2]
*100 io_out[30]
*101 io_out[31]
*102 io_out[32]
*103 io_out[33]
*104 io_out[34]
*105 io_out[35]
*106 io_out[36]
*107 io_out[37]
*108 io_out[3]
*109 io_out[4]
*110 io_out[5]
*111 io_out[6]
*112 io_out[7]
*113 io_out[8]
*114 io_out[9]
*115 la_data_in[0]
*116 la_data_in[10]
*117 la_data_in[11]
*118 la_data_in[12]
*119 la_data_in[13]
*120 la_data_in[14]
*121 la_data_in[15]
*122 la_data_in[16]
*123 la_data_in[17]
*124 la_data_in[18]
*125 la_data_in[19]
*126 la_data_in[1]
*127 la_data_in[20]
*128 la_data_in[21]
*129 la_data_in[22]
*130 la_data_in[23]
*131 la_data_in[24]
*132 la_data_in[25]
*133 la_data_in[26]
*134 la_data_in[27]
*135 la_data_in[28]
*136 la_data_in[29]
*137 la_data_in[2]
*138 la_data_in[30]
*139 la_data_in[31]
*140 la_data_in[32]
*141 la_data_in[33]
*142 la_data_in[34]
*143 la_data_in[35]
*144 la_data_in[36]
*145 la_data_in[37]
*146 la_data_in[38]
*147 la_data_in[39]
*148 la_data_in[3]
*149 la_data_in[40]
*150 la_data_in[41]
*151 la_data_in[42]
*152 la_data_in[43]
*153 la_data_in[44]
*154 la_data_in[45]
*155 la_data_in[46]
*156 la_data_in[47]
*157 la_data_in[48]
*158 la_data_in[49]
*159 la_data_in[4]
*160 la_data_in[50]
*161 la_data_in[51]
*162 la_data_in[52]
*163 la_data_in[53]
*164 la_data_in[54]
*165 la_data_in[55]
*166 la_data_in[56]
*167 la_data_in[57]
*168 la_data_in[58]
*169 la_data_in[59]
*170 la_data_in[5]
*171 la_data_in[60]
*172 la_data_in[61]
*173 la_data_in[62]
*174 la_data_in[63]
*175 la_data_in[6]
*176 la_data_in[7]
*177 la_data_in[8]
*178 la_data_in[9]
*179 la_data_out[0]
*180 la_data_out[10]
*181 la_data_out[11]
*182 la_data_out[12]
*183 la_data_out[13]
*184 la_data_out[14]
*185 la_data_out[15]
*186 la_data_out[16]
*187 la_data_out[17]
*188 la_data_out[18]
*189 la_data_out[19]
*190 la_data_out[1]
*191 la_data_out[20]
*192 la_data_out[21]
*193 la_data_out[22]
*194 la_data_out[23]
*195 la_data_out[24]
*196 la_data_out[25]
*197 la_data_out[26]
*198 la_data_out[27]
*199 la_data_out[28]
*200 la_data_out[29]
*201 la_data_out[2]
*202 la_data_out[30]
*203 la_data_out[31]
*204 la_data_out[32]
*205 la_data_out[33]
*206 la_data_out[34]
*207 la_data_out[35]
*208 la_data_out[36]
*209 la_data_out[37]
*210 la_data_out[38]
*211 la_data_out[39]
*212 la_data_out[3]
*213 la_data_out[40]
*214 la_data_out[41]
*215 la_data_out[42]
*216 la_data_out[43]
*217 la_data_out[44]
*218 la_data_out[45]
*219 la_data_out[46]
*220 la_data_out[47]
*221 la_data_out[48]
*222 la_data_out[49]
*223 la_data_out[4]
*224 la_data_out[50]
*225 la_data_out[51]
*226 la_data_out[52]
*227 la_data_out[53]
*228 la_data_out[54]
*229 la_data_out[55]
*230 la_data_out[56]
*231 la_data_out[57]
*232 la_data_out[58]
*233 la_data_out[59]
*234 la_data_out[5]
*235 la_data_out[60]
*236 la_data_out[61]
*237 la_data_out[62]
*238 la_data_out[63]
*239 la_data_out[6]
*240 la_data_out[7]
*241 la_data_out[8]
*242 la_data_out[9]
*243 la_oenb[0]
*244 la_oenb[10]
*245 la_oenb[11]
*246 la_oenb[12]
*247 la_oenb[13]
*248 la_oenb[14]
*249 la_oenb[15]
*250 la_oenb[16]
*251 la_oenb[17]
*252 la_oenb[18]
*253 la_oenb[19]
*254 la_oenb[1]
*255 la_oenb[20]
*256 la_oenb[21]
*257 la_oenb[22]
*258 la_oenb[23]
*259 la_oenb[24]
*260 la_oenb[25]
*261 la_oenb[26]
*262 la_oenb[27]
*263 la_oenb[28]
*264 la_oenb[29]
*265 la_oenb[2]
*266 la_oenb[30]
*267 la_oenb[31]
*268 la_oenb[32]
*269 la_oenb[33]
*270 la_oenb[34]
*271 la_oenb[35]
*272 la_oenb[36]
*273 la_oenb[37]
*274 la_oenb[38]
*275 la_oenb[39]
*276 la_oenb[3]
*277 la_oenb[40]
*278 la_oenb[41]
*279 la_oenb[42]
*280 la_oenb[43]
*281 la_oenb[44]
*282 la_oenb[45]
*283 la_oenb[46]
*284 la_oenb[47]
*285 la_oenb[48]
*286 la_oenb[49]
*287 la_oenb[4]
*288 la_oenb[50]
*289 la_oenb[51]
*290 la_oenb[52]
*291 la_oenb[53]
*292 la_oenb[54]
*293 la_oenb[55]
*294 la_oenb[56]
*295 la_oenb[57]
*296 la_oenb[58]
*297 la_oenb[59]
*298 la_oenb[5]
*299 la_oenb[60]
*300 la_oenb[61]
*301 la_oenb[62]
*302 la_oenb[63]
*303 la_oenb[6]
*304 la_oenb[7]
*305 la_oenb[8]
*306 la_oenb[9]
*307 user_clock2
*308 user_irq[0]
*309 user_irq[1]
*310 user_irq[2]
*313 wb_clk_i
*314 wb_rst_i
*315 wbs_ack_o
*316 wbs_adr_i[0]
*317 wbs_adr_i[10]
*318 wbs_adr_i[11]
*319 wbs_adr_i[12]
*320 wbs_adr_i[13]
*321 wbs_adr_i[14]
*322 wbs_adr_i[15]
*323 wbs_adr_i[16]
*324 wbs_adr_i[17]
*325 wbs_adr_i[18]
*326 wbs_adr_i[19]
*327 wbs_adr_i[1]
*328 wbs_adr_i[20]
*329 wbs_adr_i[21]
*330 wbs_adr_i[22]
*331 wbs_adr_i[23]
*332 wbs_adr_i[24]
*333 wbs_adr_i[25]
*334 wbs_adr_i[26]
*335 wbs_adr_i[27]
*336 wbs_adr_i[28]
*337 wbs_adr_i[29]
*338 wbs_adr_i[2]
*339 wbs_adr_i[30]
*340 wbs_adr_i[31]
*341 wbs_adr_i[3]
*342 wbs_adr_i[4]
*343 wbs_adr_i[5]
*344 wbs_adr_i[6]
*345 wbs_adr_i[7]
*346 wbs_adr_i[8]
*347 wbs_adr_i[9]
*348 wbs_cyc_i
*349 wbs_dat_i[0]
*350 wbs_dat_i[10]
*351 wbs_dat_i[11]
*352 wbs_dat_i[12]
*353 wbs_dat_i[13]
*354 wbs_dat_i[14]
*355 wbs_dat_i[15]
*356 wbs_dat_i[16]
*357 wbs_dat_i[17]
*358 wbs_dat_i[18]
*359 wbs_dat_i[19]
*360 wbs_dat_i[1]
*361 wbs_dat_i[20]
*362 wbs_dat_i[21]
*363 wbs_dat_i[22]
*364 wbs_dat_i[23]
*365 wbs_dat_i[24]
*366 wbs_dat_i[25]
*367 wbs_dat_i[26]
*368 wbs_dat_i[27]
*369 wbs_dat_i[28]
*370 wbs_dat_i[29]
*371 wbs_dat_i[2]
*372 wbs_dat_i[30]
*373 wbs_dat_i[31]
*374 wbs_dat_i[3]
*375 wbs_dat_i[4]
*376 wbs_dat_i[5]
*377 wbs_dat_i[6]
*378 wbs_dat_i[7]
*379 wbs_dat_i[8]
*380 wbs_dat_i[9]
*381 wbs_dat_o[0]
*382 wbs_dat_o[10]
*383 wbs_dat_o[11]
*384 wbs_dat_o[12]
*385 wbs_dat_o[13]
*386 wbs_dat_o[14]
*387 wbs_dat_o[15]
*388 wbs_dat_o[16]
*389 wbs_dat_o[17]
*390 wbs_dat_o[18]
*391 wbs_dat_o[19]
*392 wbs_dat_o[1]
*393 wbs_dat_o[20]
*394 wbs_dat_o[21]
*395 wbs_dat_o[22]
*396 wbs_dat_o[23]
*397 wbs_dat_o[24]
*398 wbs_dat_o[25]
*399 wbs_dat_o[26]
*400 wbs_dat_o[27]
*401 wbs_dat_o[28]
*402 wbs_dat_o[29]
*403 wbs_dat_o[2]
*404 wbs_dat_o[30]
*405 wbs_dat_o[31]
*406 wbs_dat_o[3]
*407 wbs_dat_o[4]
*408 wbs_dat_o[5]
*409 wbs_dat_o[6]
*410 wbs_dat_o[7]
*411 wbs_dat_o[8]
*412 wbs_dat_o[9]
*413 wbs_sel_i[0]
*414 wbs_sel_i[1]
*415 wbs_sel_i[2]
*416 wbs_sel_i[3]
*417 wbs_stb_i
*418 wbs_we_i
*419 _0_
*420 _1_
*421 mprj

*PORTS
io_in[0] I
io_in[10] I
io_in[11] I
io_in[12] I
io_in[13] I
io_in[14] I
io_in[15] I
io_in[16] I
io_in[17] I
io_in[18] I
io_in[19] I
io_in[1] I
io_in[20] I
io_in[21] I
io_in[22] I
io_in[23] I
io_in[24] I
io_in[25] I
io_in[26] I
io_in[27] I
io_in[28] I
io_in[29] I
io_in[2] I
io_in[30] I
io_in[31] I
io_in[32] I
io_in[33] I
io_in[34] I
io_in[35] I
io_in[36] I
io_in[37] I
io_in[3] I
io_in[4] I
io_in[5] I
io_in[6] I
io_in[7] I
io_in[8] I
io_in[9] I
io_oeb[0] O
io_oeb[10] O
io_oeb[11] O
io_oeb[12] O
io_oeb[13] O
io_oeb[14] O
io_oeb[15] O
io_oeb[16] O
io_oeb[17] O
io_oeb[18] O
io_oeb[19] O
io_oeb[1] O
io_oeb[20] O
io_oeb[21] O
io_oeb[22] O
io_oeb[23] O
io_oeb[24] O
io_oeb[25] O
io_oeb[26] O
io_oeb[27] O
io_oeb[28] O
io_oeb[29] O
io_oeb[2] O
io_oeb[30] O
io_oeb[31] O
io_oeb[32] O
io_oeb[33] O
io_oeb[34] O
io_oeb[35] O
io_oeb[36] O
io_oeb[37] O
io_oeb[3] O
io_oeb[4] O
io_oeb[5] O
io_oeb[6] O
io_oeb[7] O
io_oeb[8] O
io_oeb[9] O
io_out[0] O
io_out[10] O
io_out[11] O
io_out[12] O
io_out[13] O
io_out[14] O
io_out[15] O
io_out[16] O
io_out[17] O
io_out[18] O
io_out[19] O
io_out[1] O
io_out[20] O
io_out[21] O
io_out[22] O
io_out[23] O
io_out[24] O
io_out[25] O
io_out[26] O
io_out[27] O
io_out[28] O
io_out[29] O
io_out[2] O
io_out[30] O
io_out[31] O
io_out[32] O
io_out[33] O
io_out[34] O
io_out[35] O
io_out[36] O
io_out[37] O
io_out[3] O
io_out[4] O
io_out[5] O
io_out[6] O
io_out[7] O
io_out[8] O
io_out[9] O
la_data_in[0] I
la_data_in[10] I
la_data_in[11] I
la_data_in[12] I
la_data_in[13] I
la_data_in[14] I
la_data_in[15] I
la_data_in[16] I
la_data_in[17] I
la_data_in[18] I
la_data_in[19] I
la_data_in[1] I
la_data_in[20] I
la_data_in[21] I
la_data_in[22] I
la_data_in[23] I
la_data_in[24] I
la_data_in[25] I
la_data_in[26] I
la_data_in[27] I
la_data_in[28] I
la_data_in[29] I
la_data_in[2] I
la_data_in[30] I
la_data_in[31] I
la_data_in[32] I
la_data_in[33] I
la_data_in[34] I
la_data_in[35] I
la_data_in[36] I
la_data_in[37] I
la_data_in[38] I
la_data_in[39] I
la_data_in[3] I
la_data_in[40] I
la_data_in[41] I
la_data_in[42] I
la_data_in[43] I
la_data_in[44] I
la_data_in[45] I
la_data_in[46] I
la_data_in[47] I
la_data_in[48] I
la_data_in[49] I
la_data_in[4] I
la_data_in[50] I
la_data_in[51] I
la_data_in[52] I
la_data_in[53] I
la_data_in[54] I
la_data_in[55] I
la_data_in[56] I
la_data_in[57] I
la_data_in[58] I
la_data_in[59] I
la_data_in[5] I
la_data_in[60] I
la_data_in[61] I
la_data_in[62] I
la_data_in[63] I
la_data_in[6] I
la_data_in[7] I
la_data_in[8] I
la_data_in[9] I
la_data_out[0] O
la_data_out[10] O
la_data_out[11] O
la_data_out[12] O
la_data_out[13] O
la_data_out[14] O
la_data_out[15] O
la_data_out[16] O
la_data_out[17] O
la_data_out[18] O
la_data_out[19] O
la_data_out[1] O
la_data_out[20] O
la_data_out[21] O
la_data_out[22] O
la_data_out[23] O
la_data_out[24] O
la_data_out[25] O
la_data_out[26] O
la_data_out[27] O
la_data_out[28] O
la_data_out[29] O
la_data_out[2] O
la_data_out[30] O
la_data_out[31] O
la_data_out[32] O
la_data_out[33] O
la_data_out[34] O
la_data_out[35] O
la_data_out[36] O
la_data_out[37] O
la_data_out[38] O
la_data_out[39] O
la_data_out[3] O
la_data_out[40] O
la_data_out[41] O
la_data_out[42] O
la_data_out[43] O
la_data_out[44] O
la_data_out[45] O
la_data_out[46] O
la_data_out[47] O
la_data_out[48] O
la_data_out[49] O
la_data_out[4] O
la_data_out[50] O
la_data_out[51] O
la_data_out[52] O
la_data_out[53] O
la_data_out[54] O
la_data_out[55] O
la_data_out[56] O
la_data_out[57] O
la_data_out[58] O
la_data_out[59] O
la_data_out[5] O
la_data_out[60] O
la_data_out[61] O
la_data_out[62] O
la_data_out[63] O
la_data_out[6] O
la_data_out[7] O
la_data_out[8] O
la_data_out[9] O
la_oenb[0] I
la_oenb[10] I
la_oenb[11] I
la_oenb[12] I
la_oenb[13] I
la_oenb[14] I
la_oenb[15] I
la_oenb[16] I
la_oenb[17] I
la_oenb[18] I
la_oenb[19] I
la_oenb[1] I
la_oenb[20] I
la_oenb[21] I
la_oenb[22] I
la_oenb[23] I
la_oenb[24] I
la_oenb[25] I
la_oenb[26] I
la_oenb[27] I
la_oenb[28] I
la_oenb[29] I
la_oenb[2] I
la_oenb[30] I
la_oenb[31] I
la_oenb[32] I
la_oenb[33] I
la_oenb[34] I
la_oenb[35] I
la_oenb[36] I
la_oenb[37] I
la_oenb[38] I
la_oenb[39] I
la_oenb[3] I
la_oenb[40] I
la_oenb[41] I
la_oenb[42] I
la_oenb[43] I
la_oenb[44] I
la_oenb[45] I
la_oenb[46] I
la_oenb[47] I
la_oenb[48] I
la_oenb[49] I
la_oenb[4] I
la_oenb[50] I
la_oenb[51] I
la_oenb[52] I
la_oenb[53] I
la_oenb[54] I
la_oenb[55] I
la_oenb[56] I
la_oenb[57] I
la_oenb[58] I
la_oenb[59] I
la_oenb[5] I
la_oenb[60] I
la_oenb[61] I
la_oenb[62] I
la_oenb[63] I
la_oenb[6] I
la_oenb[7] I
la_oenb[8] I
la_oenb[9] I
user_clock2 I
user_irq[0] O
user_irq[1] O
user_irq[2] O
wb_clk_i I
wb_rst_i I
wbs_ack_o O
wbs_adr_i[0] I
wbs_adr_i[10] I
wbs_adr_i[11] I
wbs_adr_i[12] I
wbs_adr_i[13] I
wbs_adr_i[14] I
wbs_adr_i[15] I
wbs_adr_i[16] I
wbs_adr_i[17] I
wbs_adr_i[18] I
wbs_adr_i[19] I
wbs_adr_i[1] I
wbs_adr_i[20] I
wbs_adr_i[21] I
wbs_adr_i[22] I
wbs_adr_i[23] I
wbs_adr_i[24] I
wbs_adr_i[25] I
wbs_adr_i[26] I
wbs_adr_i[27] I
wbs_adr_i[28] I
wbs_adr_i[29] I
wbs_adr_i[2] I
wbs_adr_i[30] I
wbs_adr_i[31] I
wbs_adr_i[3] I
wbs_adr_i[4] I
wbs_adr_i[5] I
wbs_adr_i[6] I
wbs_adr_i[7] I
wbs_adr_i[8] I
wbs_adr_i[9] I
wbs_cyc_i I
wbs_dat_i[0] I
wbs_dat_i[10] I
wbs_dat_i[11] I
wbs_dat_i[12] I
wbs_dat_i[13] I
wbs_dat_i[14] I
wbs_dat_i[15] I
wbs_dat_i[16] I
wbs_dat_i[17] I
wbs_dat_i[18] I
wbs_dat_i[19] I
wbs_dat_i[1] I
wbs_dat_i[20] I
wbs_dat_i[21] I
wbs_dat_i[22] I
wbs_dat_i[23] I
wbs_dat_i[24] I
wbs_dat_i[25] I
wbs_dat_i[26] I
wbs_dat_i[27] I
wbs_dat_i[28] I
wbs_dat_i[29] I
wbs_dat_i[2] I
wbs_dat_i[30] I
wbs_dat_i[31] I
wbs_dat_i[3] I
wbs_dat_i[4] I
wbs_dat_i[5] I
wbs_dat_i[6] I
wbs_dat_i[7] I
wbs_dat_i[8] I
wbs_dat_i[9] I
wbs_dat_o[0] O
wbs_dat_o[10] O
wbs_dat_o[11] O
wbs_dat_o[12] O
wbs_dat_o[13] O
wbs_dat_o[14] O
wbs_dat_o[15] O
wbs_dat_o[16] O
wbs_dat_o[17] O
wbs_dat_o[18] O
wbs_dat_o[19] O
wbs_dat_o[1] O
wbs_dat_o[20] O
wbs_dat_o[21] O
wbs_dat_o[22] O
wbs_dat_o[23] O
wbs_dat_o[24] O
wbs_dat_o[25] O
wbs_dat_o[26] O
wbs_dat_o[27] O
wbs_dat_o[28] O
wbs_dat_o[29] O
wbs_dat_o[2] O
wbs_dat_o[30] O
wbs_dat_o[31] O
wbs_dat_o[3] O
wbs_dat_o[4] O
wbs_dat_o[5] O
wbs_dat_o[6] O
wbs_dat_o[7] O
wbs_dat_o[8] O
wbs_dat_o[9] O
wbs_sel_i[0] I
wbs_sel_i[1] I
wbs_sel_i[2] I
wbs_sel_i[3] I
wbs_stb_i I
wbs_we_i I

*D_NET *2 0.0734924
*CONN
*P io_in[10] I
*I *421:io_in[5] I *D user_proj_example
*CAP
1 io_in[10] 0.00579622
2 *421:io_in[5] 0.000855011
3 *2:9 0.03095
4 *2:7 0.030095
5 *2:5 0.00579622
*RES
1 io_in[10] *2:5 46.125 
2 *2:5 *2:7 4.5 
3 *2:7 *2:9 245.97 
4 *2:9 *421:io_in[5] 11.025 
*END

*D_NET *3 0.103254
*CONN
*P io_in[11] I
*I *421:io_in[6] I *D user_proj_example
*CAP
1 io_in[11] 0.00111227
2 *421:io_in[6] 0.00692806
3 *3:9 0.0291775
4 *3:7 0.0233617
5 *3:9 *38:9 0.0426746
*RES
1 io_in[11] *3:7 12.825 
2 *3:7 *3:9 233.01 
3 *3:9 *421:io_in[6] 48.825 
*END

*D_NET *4 0.0679825
*CONN
*P io_in[12] I
*I *421:io_in[7] I *D user_proj_example
*CAP
1 io_in[12] 0.00511502
2 *421:io_in[7] 0.0018979
3 *4:9 0.0288762
4 *4:7 0.0320933
*RES
1 io_in[12] *4:7 45.225 
2 *4:7 *4:9 220.05 
3 *4:9 *421:io_in[7] 16.425 
*END

*D_NET *5 0.44909
*CONN
*P io_in[13] I
*I *421:io_in[8] I *D user_proj_example
*CAP
1 io_in[13] 0.11905
2 *421:io_in[8] 0.000353325
3 *5:9 0.0215484
4 *5:7 0.0211951
5 *5:5 0.11905
6 *5:9 *6:9 0.137336
7 *5:9 *7:13 0.0305572
*RES
1 io_in[13] *5:5 954.945 
2 *5:5 *5:7 4.5 
3 *5:7 *5:9 339.93 
4 *5:9 *421:io_in[8] 7.065 
*END

*D_NET *6 0.562279
*CONN
*P io_in[14] I
*I *421:io_in[9] I *D user_proj_example
*CAP
1 io_in[14] 0.148604
2 *421:io_in[9] 0.00030555
3 *6:9 0.0466391
4 *6:7 0.0463336
5 *6:5 0.148604
6 *6:9 *7:13 0.00996547
7 *6:9 *8:13 0.0244927
8 *5:9 *6:9 0.137336
*RES
1 io_in[14] *6:5 954.765 
2 *6:5 *6:7 4.5 
3 *6:7 *6:9 545.13 
4 *6:9 *421:io_in[9] 6.885 
*END

*D_NET *7 0.897379
*CONN
*P io_in[15] I
*I *421:io_in[10] I *D user_proj_example
*CAP
1 io_in[15] 0.00107539
2 *421:io_in[10] 0.000337538
3 *7:13 0.0478891
4 *7:11 0.0475515
5 *7:9 0.06168
6 *7:7 0.0627554
7 *7:9 *8:9 0.333813
8 *7:9 *91:23 0.0137664
9 *7:13 *8:13 0.287988
10 *5:9 *7:13 0.0305572
11 *6:9 *7:13 0.00996547
*RES
1 io_in[15] *7:7 12.825 
2 *7:7 *7:9 937.35 
3 *7:9 *7:11 4.5 
4 *7:11 *7:13 732.15 
5 *7:13 *421:io_in[10] 7.065 
*END

*D_NET *8 1.07474
*CONN
*P io_in[16] I
*I *421:io_in[11] I *D user_proj_example
*CAP
1 io_in[16] 0.00114815
2 *421:io_in[11] 0.000298788
3 *8:13 0.0662097
4 *8:11 0.0659109
5 *8:9 0.0115416
6 *8:7 0.0126897
7 *8:9 *91:23 0.270646
8 *6:9 *8:13 0.0244927
9 *7:9 *8:9 0.333813
10 *7:13 *8:13 0.287988
*RES
1 io_in[16] *8:7 12.645 
2 *8:7 *8:9 830.79 
3 *8:9 *8:11 4.5 
4 *8:11 *8:13 873.81 
5 *8:13 *421:io_in[11] 6.885 
*END

*D_NET *34 0.0892864
*CONN
*P io_in[5] I
*I *421:io_in[0] I *D user_proj_example
*CAP
1 io_in[5] 0.00583006
2 *421:io_in[0] 0.000794945
3 *34:9 0.0388132
4 *34:7 0.0380182
5 *34:5 0.00583006
*RES
1 io_in[5] *34:5 46.125 
2 *34:5 *34:7 4.5 
3 *34:7 *34:9 310.77 
4 *34:9 *421:io_in[0] 11.025 
*END

*D_NET *35 0.105337
*CONN
*P io_in[6] I
*I *421:io_in[1] I *D user_proj_example
*CAP
1 io_in[6] 0.0011292
2 *421:io_in[1] 0.00546199
3 *35:9 0.0378782
4 *35:7 0.0335454
5 *35:9 *38:9 0.027322
*RES
1 io_in[6] *35:7 12.825 
2 *35:7 *35:9 297.81 
3 *35:9 *421:io_in[1] 48.825 
*END

*D_NET *36 0.0830688
*CONN
*P io_in[7] I
*I *421:io_in[2] I *D user_proj_example
*CAP
1 io_in[7] 0.00514884
2 *421:io_in[2] 0.00146781
3 *36:9 0.0363856
4 *36:7 0.0400666
*RES
1 io_in[7] *36:7 45.225 
2 *36:7 *36:9 284.85 
3 *36:9 *421:io_in[2] 16.425 
*END

*D_NET *37 0.0797838
*CONN
*P io_in[8] I
*I *421:io_in[3] I *D user_proj_example
*CAP
1 io_in[8] 0.00482517
2 *421:io_in[3] 0.00182558
3 *37:9 0.0350667
4 *37:7 0.0380663
*RES
1 io_in[8] *37:7 42.525 
2 *37:7 *37:9 271.89 
3 *37:9 *421:io_in[3] 19.125 
*END

*D_NET *38 0.126378
*CONN
*P io_in[9] I
*I *421:io_in[4] I *D user_proj_example
*CAP
1 io_in[9] 0.00131687
2 *421:io_in[4] 0.00557721
3 *38:9 0.0268739
4 *38:7 0.0226135
5 *3:9 *38:9 0.0426746
6 *35:9 *38:9 0.027322
*RES
1 io_in[9] *38:7 12.645 
2 *38:7 *38:9 258.93 
3 *38:9 *421:io_in[4] 49.005 
*END

*D_NET *85 0.562483
*CONN
*P io_out[17] O
*I *421:io_oeb[0] O *D user_proj_example
*I *421:io_out[0] O *D user_proj_example
*CAP
1 io_out[17] 0.000914436
2 *421:io_oeb[0] 0.00424454
3 *421:io_out[0] 0.00408408
4 *85:25 0.0145397
5 *85:23 0.0136253
6 *85:21 0.0620821
7 *85:19 0.0622426
8 *85:21 *86:21 0.315349
9 *85:25 *86:25 0.0854019
*RES
1 *421:io_out[0] *421:io_oeb[0] 39.96 
2 *421:io_oeb[0] *85:19 5.805 
3 *85:19 *85:21 878.67 
4 *85:21 *85:23 4.5 
5 *85:23 *85:25 212.85 
6 *85:25 io_out[17] 11.565 
*END

*D_NET *86 0.849343
*CONN
*P io_out[18] O
*I *421:io_oeb[1] O *D user_proj_example
*I *421:io_out[1] O *D user_proj_example
*CAP
1 io_out[18] 0.000937429
2 *421:io_oeb[1] 0.00419165
3 *421:io_out[1] 0.00399018
4 *86:25 0.00823652
5 *86:23 0.00729909
6 *86:21 0.00524832
7 *86:19 0.0054498
8 *86:21 *87:25 0.000531874
9 *86:21 *87:27 0.284459
10 *86:25 *87:31 0.128249
11 *85:21 *86:21 0.315349
12 *85:25 *86:25 0.0854019
*RES
1 *421:io_out[1] *421:io_oeb[1] 39.78 
2 *421:io_oeb[1] *86:19 5.805 
3 *86:19 *86:21 801.81 
4 *86:21 *86:23 4.5 
5 *86:23 *86:25 319.41 
6 *86:25 io_out[18] 11.745 
*END

*D_NET *87 0.704092
*CONN
*P io_out[19] O
*I *421:io_oeb[2] O *D user_proj_example
*I *421:io_out[2] O *D user_proj_example
*CAP
1 io_out[19] 0.000960422
2 *421:io_oeb[2] 7.00009e-05
3 *421:io_out[2] 0.00397385
4 *87:31 0.00849573
5 *87:29 0.00753531
6 *87:27 0.0470839
7 *87:25 0.0473444
8 *87:13 0.00430439
9 *87:31 *89:23 0.171084
10 *86:21 *87:25 0.000531874
11 *86:21 *87:27 0.284459
12 *86:25 *87:31 0.128249
*RES
1 *421:io_out[2] *87:13 39.465 
2 *87:13 *421:io_oeb[2] 0.405 
3 *87:13 *87:25 7.83 
4 *87:25 *87:27 723.24 
5 *87:27 *87:29 4.5 
6 *87:29 *87:31 425.97 
7 *87:31 io_out[19] 11.925 
*END

*D_NET *89 0.738228
*CONN
*P io_out[20] O
*I *421:io_oeb[3] O *D user_proj_example
*I *421:io_out[3] O *D user_proj_example
*CAP
1 io_out[20] 0.000983416
2 *421:io_oeb[3] 0.000346123
3 *421:io_out[3] 0.00369554
4 *89:23 0.00890336
5 *89:21 0.00791994
6 *89:19 0.0456241
7 *89:9 0.0496658
8 *89:19 *90:9 0.010071
9 *89:19 *90:19 0.22508
10 *89:23 *90:23 0.214855
11 *87:31 *89:23 0.171084
*RES
1 *421:io_out[3] *89:9 32.715 
2 *89:9 *421:io_oeb[3] 7.065 
3 *89:9 *89:19 649.35 
4 *89:19 *89:21 4.5 
5 *89:21 *89:23 534.87 
6 *89:23 io_out[20] 12.105 
*END

*D_NET *90 0.942705
*CONN
*P io_out[21] O
*I *421:io_oeb[4] O *D user_proj_example
*I *421:io_out[4] O *D user_proj_example
*CAP
1 io_out[21] 0.00100641
2 *421:io_oeb[4] 0.000384872
3 *421:io_out[4] 0.00207068
4 *90:23 0.00899029
5 *90:21 0.00798388
6 *90:19 0.00360512
7 *90:9 0.00606068
8 *90:19 *91:9 0.010071
9 *90:19 *91:19 0.194897
10 *90:23 *91:23 0.257629
11 *89:19 *90:9 0.010071
12 *89:19 *90:19 0.22508
13 *89:23 *90:23 0.214855
*RES
1 *421:io_out[4] *90:9 32.895 
2 *90:9 *421:io_oeb[4] 7.245 
3 *90:9 *90:19 572.49 
4 *90:19 *90:21 4.5 
5 *90:21 *90:23 641.25 
6 *90:23 io_out[21] 12.285 
*END

*D_NET *91 0.835794
*CONN
*P io_out[22] O
*I *421:io_oeb[5] O *D user_proj_example
*I *421:io_out[5] O *D user_proj_example
*CAP
1 io_out[22] 0.0010294
2 *421:io_oeb[5] 0.000423622
3 *421:io_out[5] 0.00210943
4 *91:23 0.00963386
5 *91:21 0.00860445
6 *91:19 0.0322255
7 *91:9 0.0347586
8 *7:9 *91:23 0.0137664
9 *8:9 *91:23 0.270646
10 *90:19 *91:9 0.010071
11 *90:19 *91:19 0.194897
12 *90:23 *91:23 0.257629
*RES
1 *421:io_out[5] *91:9 33.075 
2 *91:9 *421:io_oeb[5] 7.425 
3 *91:9 *91:19 495.63 
4 *91:19 *91:21 4.5 
5 *91:21 *91:23 747.81 
6 *91:23 io_out[22] 12.465 
*END

*D_NET *313 0.112685
*CONN
*P wb_clk_i I
*I *421:wb_clk_i I *D user_proj_example
*CAP
1 wb_clk_i 0.000149933
2 *421:wb_clk_i 0.00071196
3 *313:13 0.0142128
4 *313:11 0.0136507
5 *313:13 *314:13 0.0839591
*RES
1 wb_clk_i *313:11 5.805 
2 *313:11 *313:13 211.23 
3 *313:13 *421:wb_clk_i 9.855 
*END

*D_NET *314 0.223705
*CONN
*P wb_rst_i I
*I *421:wb_rst_i I *D user_proj_example
*CAP
1 wb_rst_i 0.00012694
2 *421:wb_rst_i 0.000764981
3 *314:13 0.0697461
4 *314:11 0.0691081
5 *313:13 *314:13 0.0839591
*RES
1 wb_rst_i *314:11 5.625 
2 *314:11 *314:13 657.45 
3 *314:13 *421:wb_rst_i 10.395 
*END
