*SPEF "ieee 1481-1999"
*DESIGN "user_proj_example"
*DATE "11:11:11 Fri 11 11, 1111"
*VENDOR "OpenRCX"
*PROGRAM "Parallel Extraction"
*VERSION "1.0"
*DESIGN_FLOW "NAME_SCOPE LOCAL" "PIN_CAP NONE"
*DIVIDER /
*DELIMITER :
*BUS_DELIMITER []
*T_UNIT 1 NS
*C_UNIT 1 PF
*R_UNIT 1 OHM
*L_UNIT 1 HENRY

*NAME_MAP
*1 io_in[0]
*2 io_in[10]
*3 io_in[11]
*4 io_in[1]
*5 io_in[2]
*6 io_in[3]
*7 io_in[4]
*8 io_in[5]
*9 io_in[6]
*10 io_in[7]
*11 io_in[8]
*12 io_in[9]
*13 net21
*14 net22
*15 net23
*16 net24
*17 net25
*18 net26
*19 net27
*20 io_out[0]
*21 io_out[1]
*22 io_out[2]
*23 io_out[3]
*24 io_out[4]
*25 io_out[5]
*26 io_out[6]
*29 wb_clk_i
*30 wb_rst_i
*31 _0000_
*32 _0001_
*33 _0002_
*34 _0003_
*35 _0004_
*36 _0005_
*37 _0006_
*38 _0007_
*39 _0008_
*40 _0009_
*41 _0010_
*42 _0011_
*43 _0012_
*44 _0013_
*45 _0014_
*46 _0015_
*47 _0016_
*48 _0017_
*49 _0018_
*50 _0019_
*51 _0020_
*52 _0021_
*53 _0022_
*54 _0023_
*55 _0024_
*56 _0025_
*57 _0026_
*58 _0027_
*59 _0028_
*60 _0029_
*61 _0030_
*62 _0031_
*63 _0032_
*64 _0033_
*65 _0034_
*66 _0035_
*67 _0036_
*68 _0037_
*69 _0038_
*70 _0039_
*71 _0040_
*72 _0041_
*73 _0042_
*74 _0043_
*75 _0044_
*76 _0045_
*77 _0046_
*78 _0047_
*79 _0048_
*80 _0049_
*81 _0050_
*82 _0051_
*83 _0052_
*84 _0053_
*85 _0054_
*86 _0055_
*87 _0056_
*88 _0057_
*89 _0058_
*90 _0059_
*91 _0060_
*92 _0061_
*93 _0062_
*94 _0063_
*95 _0064_
*96 _0065_
*97 _0066_
*98 _0067_
*99 _0068_
*100 _0069_
*101 _0070_
*102 _0071_
*103 _0072_
*104 _0073_
*105 _0074_
*106 _0075_
*107 _0076_
*108 _0077_
*109 _0078_
*110 _0079_
*111 _0080_
*112 _0081_
*113 _0082_
*114 _0083_
*115 _0084_
*116 _0085_
*117 _0086_
*118 _0087_
*119 _0088_
*120 _0089_
*121 _0090_
*122 _0091_
*123 _0092_
*124 _0093_
*125 _0094_
*126 _0095_
*127 _0096_
*128 _0097_
*129 _0098_
*130 _0099_
*131 _0100_
*132 _0101_
*133 _0102_
*134 _0103_
*135 _0104_
*136 _0105_
*137 _0106_
*138 _0107_
*139 _0108_
*140 _0109_
*141 _0110_
*142 _0111_
*143 _0112_
*144 _0113_
*145 _0114_
*146 _0115_
*147 _0116_
*148 _0117_
*149 _0118_
*150 _0119_
*151 _0120_
*152 _0121_
*153 _0122_
*154 _0123_
*155 _0124_
*156 _0125_
*157 _0126_
*158 _0127_
*159 _0128_
*160 _0129_
*161 _0130_
*162 _0131_
*163 _0132_
*164 _0133_
*165 _0134_
*166 _0135_
*167 _0136_
*168 _0137_
*169 _0138_
*170 _0139_
*171 _0140_
*172 _0141_
*173 _0142_
*174 _0143_
*175 _0144_
*176 _0145_
*177 _0146_
*178 _0147_
*179 _0148_
*180 _0149_
*181 _0150_
*182 _0151_
*183 _0152_
*184 _0153_
*185 _0154_
*186 _0155_
*187 _0156_
*188 _0157_
*189 _0158_
*190 _0159_
*191 _0160_
*192 _0161_
*193 _0162_
*194 _0163_
*195 _0164_
*196 _0165_
*197 _0166_
*198 _0167_
*199 _0168_
*200 _0169_
*201 _0170_
*202 _0171_
*203 _0172_
*204 _0173_
*205 _0174_
*206 _0175_
*207 _0176_
*208 _0177_
*209 _0178_
*210 _0179_
*211 _0180_
*212 _0181_
*213 _0182_
*214 _0183_
*215 _0184_
*216 _0185_
*217 _0186_
*218 _0187_
*219 _0188_
*220 _0189_
*221 _0190_
*222 _0191_
*223 _0192_
*224 _0193_
*225 _0194_
*226 _0195_
*227 _0196_
*228 _0197_
*229 _0198_
*230 _0199_
*231 _0200_
*232 _0201_
*233 _0202_
*234 _0203_
*235 _0204_
*236 _0205_
*237 _0206_
*238 _0207_
*239 _0208_
*240 _0209_
*241 _0210_
*242 _0211_
*243 _0212_
*244 _0213_
*245 _0214_
*246 _0215_
*247 _0216_
*248 _0217_
*249 _0218_
*250 _0219_
*251 _0220_
*252 _0221_
*253 _0222_
*254 _0223_
*255 _0224_
*256 _0225_
*257 _0226_
*258 _0227_
*259 _0228_
*260 _0229_
*261 _0230_
*262 _0231_
*263 _0232_
*264 _0233_
*265 _0234_
*266 _0235_
*267 _0236_
*268 _0237_
*269 _0238_
*270 _0239_
*271 _0240_
*272 _0241_
*273 _0242_
*274 _0243_
*275 _0244_
*276 _0245_
*277 _0246_
*278 _0247_
*279 _0248_
*280 _0249_
*281 _0250_
*282 _0251_
*283 _0252_
*284 _0253_
*285 _0254_
*286 _0255_
*287 _0256_
*288 _0257_
*289 _0258_
*290 _0259_
*291 _0260_
*292 _0261_
*293 _0262_
*294 _0263_
*295 _0264_
*296 _0265_
*297 _0266_
*298 _0267_
*299 _0268_
*300 _0269_
*301 _0270_
*302 _0271_
*303 _0272_
*304 _0273_
*305 _0274_
*306 _0275_
*307 _0276_
*308 _0277_
*309 _0278_
*310 _0279_
*311 _0280_
*312 _0281_
*313 _0282_
*314 _0283_
*315 _0284_
*316 _0285_
*317 _0286_
*318 _0287_
*319 _0288_
*320 _0289_
*321 _0290_
*322 _0291_
*323 _0292_
*324 _0293_
*325 _0294_
*326 _0295_
*327 _0296_
*328 _0297_
*329 _0298_
*330 _0299_
*331 _0300_
*332 _0301_
*333 _0302_
*334 _0303_
*335 _0304_
*336 _0305_
*337 _0306_
*338 _0307_
*339 _0308_
*340 _0309_
*341 _0310_
*342 _0311_
*343 _0312_
*344 _0313_
*345 _0314_
*346 _0315_
*347 _0316_
*348 _0317_
*349 _0318_
*350 _0319_
*351 _0320_
*352 _0321_
*353 _0322_
*354 _0323_
*355 _0324_
*356 _0325_
*357 _0326_
*358 _0327_
*359 _0328_
*360 _0329_
*361 _0330_
*362 _0331_
*363 _0332_
*364 _0333_
*365 _0334_
*366 _0335_
*367 _0336_
*368 _0337_
*369 _0338_
*370 _0339_
*371 _0340_
*372 _0341_
*373 _0342_
*374 _0343_
*375 _0344_
*376 _0345_
*377 _0346_
*378 _0347_
*379 _0348_
*380 _0349_
*381 _0350_
*382 _0351_
*383 _0352_
*384 _0353_
*385 _0354_
*386 _0355_
*387 _0356_
*388 _0357_
*389 _0358_
*390 _0359_
*391 _0360_
*392 _0361_
*393 _0362_
*394 _0363_
*395 _0364_
*396 _0365_
*397 _0366_
*398 _0367_
*399 _0368_
*400 _0369_
*401 _0370_
*402 _0371_
*403 _0372_
*404 _0373_
*405 _0374_
*406 _0375_
*407 _0376_
*408 _0377_
*409 _0378_
*410 _0379_
*411 _0380_
*412 _0381_
*413 _0382_
*414 _0383_
*415 _0384_
*416 _0385_
*417 _0386_
*418 _0387_
*419 _0388_
*420 _0389_
*421 _0390_
*422 _0391_
*423 _0392_
*424 _0393_
*425 _0394_
*426 _0395_
*427 _0396_
*428 _0397_
*429 _0398_
*430 _0399_
*431 _0400_
*432 _0401_
*433 _0402_
*434 _0403_
*435 _0404_
*436 _0405_
*437 _0406_
*438 _0407_
*439 _0408_
*440 _0409_
*441 _0410_
*442 _0411_
*443 _0412_
*444 _0413_
*445 _0414_
*446 _0415_
*447 _0416_
*448 _0417_
*449 _0418_
*450 _0419_
*451 _0420_
*452 _0421_
*453 _0422_
*454 _0423_
*455 _0424_
*456 _0425_
*457 _0426_
*458 _0427_
*459 _0428_
*460 _0429_
*461 _0430_
*462 _0431_
*463 _0432_
*464 _0433_
*465 _0434_
*466 _0435_
*467 _0436_
*468 _0437_
*469 _0438_
*470 _0439_
*471 _0440_
*472 _0441_
*473 _0442_
*474 _0443_
*475 _0444_
*476 _0445_
*477 _0446_
*478 _0447_
*479 _0448_
*480 _0449_
*481 _0450_
*482 _0451_
*483 _0452_
*484 _0453_
*485 _0454_
*486 _0455_
*487 _0456_
*488 _0457_
*489 _0458_
*490 _0459_
*491 _0460_
*492 _0461_
*493 _0462_
*494 _0463_
*495 _0464_
*496 _0465_
*497 _0466_
*498 _0467_
*499 _0468_
*500 _0469_
*501 _0470_
*502 _0471_
*503 _0472_
*504 _0473_
*505 _0474_
*506 _0475_
*507 _0476_
*508 _0477_
*509 _0478_
*510 _0479_
*511 _0480_
*512 _0481_
*513 _0482_
*514 _0483_
*515 _0484_
*516 _0485_
*517 _0486_
*518 _0487_
*519 _0488_
*520 _0489_
*521 _0490_
*522 _0491_
*523 _0492_
*524 _0493_
*525 _0494_
*526 _0495_
*527 _0496_
*528 _0497_
*529 _0498_
*530 _0499_
*531 _0500_
*532 _0501_
*533 _0502_
*534 _0503_
*535 _0504_
*536 _0505_
*537 _0506_
*538 _0507_
*539 _0508_
*540 _0509_
*541 _0510_
*542 _0511_
*543 _0512_
*544 _0513_
*545 _0514_
*546 _0515_
*547 _0516_
*548 _0517_
*549 _0518_
*550 _0519_
*551 _0520_
*552 _0521_
*553 _0522_
*554 _0523_
*555 _0524_
*556 _0525_
*557 _0526_
*558 _0527_
*559 _0528_
*560 _0529_
*561 _0530_
*562 _0531_
*563 _0532_
*564 _0533_
*565 _0534_
*566 _0535_
*567 _0536_
*568 _0537_
*569 _0538_
*570 _0539_
*571 _0540_
*572 _0541_
*573 _0542_
*574 _0543_
*575 _0544_
*576 _0545_
*577 _0546_
*578 _0547_
*579 _0548_
*580 _0549_
*581 _0550_
*582 _0551_
*583 _0552_
*584 _0553_
*585 _0554_
*586 _0555_
*587 _0556_
*588 _0557_
*589 _0558_
*590 _0559_
*591 _0560_
*592 _0561_
*593 _0562_
*594 _0563_
*595 _0564_
*596 _0565_
*597 _0566_
*598 _0567_
*599 _0568_
*600 _0569_
*601 _0570_
*602 _0571_
*603 _0572_
*604 _0573_
*605 _0574_
*606 _0575_
*607 _0576_
*608 _0577_
*609 _0578_
*610 _0579_
*611 _0580_
*612 _0581_
*613 _0582_
*614 _0583_
*615 _0584_
*616 _0585_
*617 _0586_
*618 _0587_
*619 _0588_
*620 _0589_
*621 _0590_
*622 _0591_
*623 _0592_
*624 _0593_
*625 _0594_
*626 _0595_
*627 _0596_
*628 _0597_
*629 _0598_
*630 _0599_
*631 _0600_
*632 _0601_
*633 _0602_
*634 _0603_
*635 _0604_
*636 clknet_0_wb_clk_i
*637 clknet_3_0__leaf_wb_clk_i
*638 clknet_3_1__leaf_wb_clk_i
*639 clknet_3_2__leaf_wb_clk_i
*640 clknet_3_3__leaf_wb_clk_i
*641 clknet_3_4__leaf_wb_clk_i
*642 clknet_3_5__leaf_wb_clk_i
*643 clknet_3_6__leaf_wb_clk_i
*644 clknet_3_7__leaf_wb_clk_i
*645 net1
*646 net10
*647 net11
*648 net12
*649 net13
*650 net14
*651 net15
*652 net16
*653 net17
*654 net18
*655 net19
*656 net2
*657 net20
*658 net3
*659 net4
*660 net5
*661 net6
*662 net7
*663 net8
*664 net9
*665 the_hangy\.controlly\.s_lose
*666 the_hangy\.controlly\.state\[0\]
*667 the_hangy\.controlly\.state\[10\]
*668 the_hangy\.controlly\.state\[11\]
*669 the_hangy\.controlly\.state\[12\]
*670 the_hangy\.controlly\.state\[13\]
*671 the_hangy\.controlly\.state\[14\]
*672 the_hangy\.controlly\.state\[1\]
*673 the_hangy\.controlly\.state\[2\]
*674 the_hangy\.controlly\.state\[3\]
*675 the_hangy\.controlly\.state\[4\]
*676 the_hangy\.controlly\.state\[5\]
*677 the_hangy\.controlly\.state\[6\]
*678 the_hangy\.controlly\.state\[7\]
*679 the_hangy\.controlly\.state\[8\]
*680 the_hangy\.controlly\.state\[9\]
*681 the_hangy\.daty\.input_char\[0\]
*682 the_hangy\.daty\.input_char\[1\]
*683 the_hangy\.daty\.input_char\[2\]
*684 the_hangy\.daty\.input_char\[3\]
*685 the_hangy\.daty\.input_char\[4\]
*686 the_hangy\.daty\.tries\[0\]
*687 the_hangy\.daty\.tries\[1\]
*688 the_hangy\.daty\.tries\[2\]
*689 the_hangy\.daty\.word\[0\]
*690 the_hangy\.daty\.word\[10\]
*691 the_hangy\.daty\.word\[11\]
*692 the_hangy\.daty\.word\[12\]
*693 the_hangy\.daty\.word\[13\]
*694 the_hangy\.daty\.word\[14\]
*695 the_hangy\.daty\.word\[15\]
*696 the_hangy\.daty\.word\[16\]
*697 the_hangy\.daty\.word\[17\]
*698 the_hangy\.daty\.word\[18\]
*699 the_hangy\.daty\.word\[19\]
*700 the_hangy\.daty\.word\[1\]
*701 the_hangy\.daty\.word\[20\]
*702 the_hangy\.daty\.word\[21\]
*703 the_hangy\.daty\.word\[22\]
*704 the_hangy\.daty\.word\[23\]
*705 the_hangy\.daty\.word\[24\]
*706 the_hangy\.daty\.word\[2\]
*707 the_hangy\.daty\.word\[3\]
*708 the_hangy\.daty\.word\[4\]
*709 the_hangy\.daty\.word\[5\]
*710 the_hangy\.daty\.word\[6\]
*711 the_hangy\.daty\.word\[7\]
*712 the_hangy\.daty\.word\[8\]
*713 the_hangy\.daty\.word\[9\]
*714 the_hangy\.daty\.word_index\[0\]
*715 the_hangy\.daty\.word_index\[1\]
*716 the_hangy\.daty\.word_index\[2\]
*717 the_hangy\.daty\.word_index\[3\]
*718 the_hangy\.daty\.word_index\[4\]
*719 the_hangy\.daty\.word_index\[5\]
*720 ANTENNA_1
*721 ANTENNA_10
*722 ANTENNA_11
*723 ANTENNA_12
*724 ANTENNA_13
*725 ANTENNA_14
*726 ANTENNA_15
*727 ANTENNA_16
*728 ANTENNA_17
*729 ANTENNA_18
*730 ANTENNA_19
*731 ANTENNA_2
*732 ANTENNA_20
*733 ANTENNA_21
*734 ANTENNA_22
*735 ANTENNA_23
*736 ANTENNA_24
*737 ANTENNA_25
*738 ANTENNA_26
*739 ANTENNA_27
*740 ANTENNA_3
*741 ANTENNA_4
*742 ANTENNA_5
*743 ANTENNA_6
*744 ANTENNA_7
*745 ANTENNA_8
*746 ANTENNA_9
*747 ANTENNA__0608__B
*748 ANTENNA__0609__I
*749 ANTENNA__0611__A1
*750 ANTENNA__0612__A1
*751 ANTENNA__0612__A2
*752 ANTENNA__0612__A3
*753 ANTENNA__0613__A1
*754 ANTENNA__0613__A2
*755 ANTENNA__0623__I
*756 ANTENNA__0642__I
*757 ANTENNA__0643__I
*758 ANTENNA__0646__A1
*759 ANTENNA__0650__I
*760 ANTENNA__0652__S
*761 ANTENNA__0655__I
*762 ANTENNA__0657__I
*763 ANTENNA__0659__I0
*764 ANTENNA__0659__S
*765 ANTENNA__0664__I0
*766 ANTENNA__0664__S
*767 ANTENNA__0665__I
*768 ANTENNA__0669__I
*769 ANTENNA__0671__I0
*770 ANTENNA__0671__S
*771 ANTENNA__0673__I
*772 ANTENNA__0676__A1
*773 ANTENNA__0678__A2
*774 ANTENNA__0681__A2
*775 ANTENNA__0685__I
*776 ANTENNA__0688__A1
*777 ANTENNA__0691__I
*778 ANTENNA__0692__A1
*779 ANTENNA__0692__B1
*780 ANTENNA__0693__I
*781 ANTENNA__0696__A2
*782 ANTENNA__0707__A2
*783 ANTENNA__0707__B
*784 ANTENNA__0710__I
*785 ANTENNA__0711__A1
*786 ANTENNA__0711__A2
*787 ANTENNA__0711__B2
*788 ANTENNA__0715__A2
*789 ANTENNA__0717__I
*790 ANTENNA__0721__A1
*791 ANTENNA__0724__B2
*792 ANTENNA__0730__I
*793 ANTENNA__0733__A2
*794 ANTENNA__0733__A3
*795 ANTENNA__0736__A1
*796 ANTENNA__0739__C
*797 ANTENNA__0740__A2
*798 ANTENNA__0744__I
*799 ANTENNA__0745__I
*800 ANTENNA__0749__A1
*801 ANTENNA__0752__I
*802 ANTENNA__0753__A1
*803 ANTENNA__0754__I
*804 ANTENNA__0755__B1
*805 ANTENNA__0755__B2
*806 ANTENNA__0758__I
*807 ANTENNA__0759__I
*808 ANTENNA__0762__A1
*809 ANTENNA__0762__A2
*810 ANTENNA__0763__A1
*811 ANTENNA__0764__A1
*812 ANTENNA__0764__A3
*813 ANTENNA__0767__I
*814 ANTENNA__0768__A2
*815 ANTENNA__0770__I
*816 ANTENNA__0771__A1
*817 ANTENNA__0771__B1
*818 ANTENNA__0771__B2
*819 ANTENNA__0774__A1
*820 ANTENNA__0774__A2
*821 ANTENNA__0774__A3
*822 ANTENNA__0775__I
*823 ANTENNA__0777__I
*824 ANTENNA__0778__A3
*825 ANTENNA__0781__A1
*826 ANTENNA__0781__B
*827 ANTENNA__0784__A1
*828 ANTENNA__0788__I
*829 ANTENNA__0790__A1
*830 ANTENNA__0790__A2
*831 ANTENNA__0793__B
*832 ANTENNA__0795__A1
*833 ANTENNA__0796__I
*834 ANTENNA__0798__A1
*835 ANTENNA__0799__B
*836 ANTENNA__0801__I
*837 ANTENNA__0802__A1
*838 ANTENNA__0802__A2
*839 ANTENNA__0804__A1
*840 ANTENNA__0805__A1
*841 ANTENNA__0805__B2
*842 ANTENNA__0806__I
*843 ANTENNA__0807__A2
*844 ANTENNA__0809__I
*845 ANTENNA__0810__A1
*846 ANTENNA__0810__A2
*847 ANTENNA__0812__B1
*848 ANTENNA__0812__C
*849 ANTENNA__0813__A1
*850 ANTENNA__0816__A1
*851 ANTENNA__0817__A1
*852 ANTENNA__0817__B
*853 ANTENNA__0819__A2
*854 ANTENNA__0822__I
*855 ANTENNA__0823__A1
*856 ANTENNA__0823__B1
*857 ANTENNA__0823__B2
*858 ANTENNA__0824__I
*859 ANTENNA__0826__A2
*860 ANTENNA__0827__A1
*861 ANTENNA__0827__A3
*862 ANTENNA__0829__A1
*863 ANTENNA__0829__B
*864 ANTENNA__0831__I
*865 ANTENNA__0834__A2
*866 ANTENNA__0835__A1
*867 ANTENNA__0836__A1
*868 ANTENNA__0838__B
*869 ANTENNA__0843__A1
*870 ANTENNA__0843__A2
*871 ANTENNA__0844__I0
*872 ANTENNA__0846__A2
*873 ANTENNA__0847__A2
*874 ANTENNA__0849__A1
*875 ANTENNA__0849__C
*876 ANTENNA__0850__A2
*877 ANTENNA__0851__A2
*878 ANTENNA__0853__B
*879 ANTENNA__0855__A2
*880 ANTENNA__0857__I
*881 ANTENNA__0859__A1
*882 ANTENNA__0862__A1
*883 ANTENNA__0862__A2
*884 ANTENNA__0863__I0
*885 ANTENNA__0863__I1
*886 ANTENNA__0865__B2
*887 ANTENNA__0866__I
*888 ANTENNA__0869__A2
*889 ANTENNA__0870__A1
*890 ANTENNA__0871__I
*891 ANTENNA__0872__A1
*892 ANTENNA__0873__A1
*893 ANTENNA__0873__A2
*894 ANTENNA__0873__B
*895 ANTENNA__0875__B
*896 ANTENNA__0876__A1
*897 ANTENNA__0877__A2
*898 ANTENNA__0878__A1
*899 ANTENNA__0881__A1
*900 ANTENNA__0881__A2
*901 ANTENNA__0882__B
*902 ANTENNA__0886__A1
*903 ANTENNA__0889__B
*904 ANTENNA__0890__I
*905 ANTENNA__0891__A1
*906 ANTENNA__0892__B2
*907 ANTENNA__0892__C
*908 ANTENNA__0896__I
*909 ANTENNA__0897__B2
*910 ANTENNA__0897__C
*911 ANTENNA__0899__C
*912 ANTENNA__0900__I
*913 ANTENNA__0901__A1
*914 ANTENNA__0901__A2
*915 ANTENNA__0902__A1
*916 ANTENNA__0902__A2
*917 ANTENNA__0904__I
*918 ANTENNA__0905__B
*919 ANTENNA__0910__A1
*920 ANTENNA__0910__B2
*921 ANTENNA__0911__A2
*922 ANTENNA__0913__A1
*923 ANTENNA__0913__A2
*924 ANTENNA__0913__B1
*925 ANTENNA__0913__C
*926 ANTENNA__0915__A1
*927 ANTENNA__0915__B2
*928 ANTENNA__0917__A1
*929 ANTENNA__0918__I
*930 ANTENNA__0920__A2
*931 ANTENNA__0922__A1
*932 ANTENNA__0922__A2
*933 ANTENNA__0922__B
*934 ANTENNA__0923__A2
*935 ANTENNA__0923__B
*936 ANTENNA__0924__B2
*937 ANTENNA__0925__A2
*938 ANTENNA__0926__A1
*939 ANTENNA__0929__A1
*940 ANTENNA__0929__A2
*941 ANTENNA__0930__A1
*942 ANTENNA__0930__A2
*943 ANTENNA__0930__B2
*944 ANTENNA__0931__A1
*945 ANTENNA__0932__A1
*946 ANTENNA__0933__A2
*947 ANTENNA__0934__A1
*948 ANTENNA__0934__A3
*949 ANTENNA__0937__A1
*950 ANTENNA__0937__B
*951 ANTENNA__0937__C
*952 ANTENNA__0938__A1
*953 ANTENNA__0938__B2
*954 ANTENNA__0939__A1
*955 ANTENNA__0940__A2
*956 ANTENNA__0940__B
*957 ANTENNA__0941__A1
*958 ANTENNA__0941__A3
*959 ANTENNA__0941__B2
*960 ANTENNA__0943__A1
*961 ANTENNA__0946__A1
*962 ANTENNA__0946__A2
*963 ANTENNA__0947__A2
*964 ANTENNA__0947__B
*965 ANTENNA__0950__A1
*966 ANTENNA__0950__A2
*967 ANTENNA__0950__B2
*968 ANTENNA__0951__B2
*969 ANTENNA__0952__A1
*970 ANTENNA__0953__A1
*971 ANTENNA__0954__B
*972 ANTENNA__0955__I
*973 ANTENNA__0956__A1
*974 ANTENNA__0956__A2
*975 ANTENNA__0957__A2
*976 ANTENNA__0959__A2
*977 ANTENNA__0961__A2
*978 ANTENNA__0962__A1
*979 ANTENNA__0962__B2
*980 ANTENNA__0962__C
*981 ANTENNA__0964__A1
*982 ANTENNA__0965__A2
*983 ANTENNA__0965__B
*984 ANTENNA__0966__A2
*985 ANTENNA__0966__C
*986 ANTENNA__0967__A1
*987 ANTENNA__0967__C
*988 ANTENNA__0968__A1
*989 ANTENNA__0969__A1
*990 ANTENNA__0971__A2
*991 ANTENNA__0972__B
*992 ANTENNA__0973__A1
*993 ANTENNA__0974__I
*994 ANTENNA__0975__A1
*995 ANTENNA__0976__B
*996 ANTENNA__0977__A1
*997 ANTENNA__0977__A2
*998 ANTENNA__0978__A1
*999 ANTENNA__0979__A1
*1000 ANTENNA__0980__A1
*1001 ANTENNA__0981__A1
*1002 ANTENNA__0982__I
*1003 ANTENNA__0983__A1
*1004 ANTENNA__0987__A1
*1005 ANTENNA__0990__A2
*1006 ANTENNA__0991__A1
*1007 ANTENNA__0991__A2
*1008 ANTENNA__0992__A1
*1009 ANTENNA__0993__A1
*1010 ANTENNA__0993__A2
*1011 ANTENNA__0994__A1
*1012 ANTENNA__0996__A1
*1013 ANTENNA__0997__B2
*1014 ANTENNA__0998__A1
*1015 ANTENNA__0998__A2
*1016 ANTENNA__0998__B2
*1017 ANTENNA__0999__S
*1018 ANTENNA__1002__A1
*1019 ANTENNA__1002__A2
*1020 ANTENNA__1003__A1
*1021 ANTENNA__1003__B2
*1022 ANTENNA__1005__A1
*1023 ANTENNA__1005__A2
*1024 ANTENNA__1008__A1
*1025 ANTENNA__1008__B1
*1026 ANTENNA__1008__B2
*1027 ANTENNA__1010__A1
*1028 ANTENNA__1011__A2
*1029 ANTENNA__1012__A1
*1030 ANTENNA__1012__A2
*1031 ANTENNA__1013__A1
*1032 ANTENNA__1013__A2
*1033 ANTENNA__1014__A1
*1034 ANTENNA__1014__A2
*1035 ANTENNA__1014__C
*1036 ANTENNA__1015__A2
*1037 ANTENNA__1016__A1
*1038 ANTENNA__1016__B
*1039 ANTENNA__1016__C
*1040 ANTENNA__1017__B
*1041 ANTENNA__1020__A1
*1042 ANTENNA__1020__B
*1043 ANTENNA__1021__A1
*1044 ANTENNA__1021__A2
*1045 ANTENNA__1021__B2
*1046 ANTENNA__1023__A1
*1047 ANTENNA__1023__C
*1048 ANTENNA__1024__A1
*1049 ANTENNA__1027__A1
*1050 ANTENNA__1027__A2
*1051 ANTENNA__1027__B1
*1052 ANTENNA__1028__A1
*1053 ANTENNA__1028__B2
*1054 ANTENNA__1028__C
*1055 ANTENNA__1029__A2
*1056 ANTENNA__1032__A1
*1057 ANTENNA__1033__B
*1058 ANTENNA__1034__A2
*1059 ANTENNA__1035__A1
*1060 ANTENNA__1036__A1
*1061 ANTENNA__1037__B
*1062 ANTENNA__1038__A1
*1063 ANTENNA__1039__A1
*1064 ANTENNA__1039__A2
*1065 ANTENNA__1042__C
*1066 ANTENNA__1043__B
*1067 ANTENNA__1044__A1
*1068 ANTENNA__1045__A1
*1069 ANTENNA__1045__A2
*1070 ANTENNA__1045__C
*1071 ANTENNA__1046__A1
*1072 ANTENNA__1048__A1
*1073 ANTENNA__1048__B2
*1074 ANTENNA__1048__C
*1075 ANTENNA__1049__B
*1076 ANTENNA__1050__A1
*1077 ANTENNA__1053__A3
*1078 ANTENNA__1054__A2
*1079 ANTENNA__1054__B
*1080 ANTENNA__1057__A1
*1081 ANTENNA__1057__C
*1082 ANTENNA__1058__A1
*1083 ANTENNA__1061__A1
*1084 ANTENNA__1062__A1
*1085 ANTENNA__1062__A2
*1086 ANTENNA__1063__A1
*1087 ANTENNA__1065__A1
*1088 ANTENNA__1065__B2
*1089 ANTENNA__1066__A2
*1090 ANTENNA__1068__A1
*1091 ANTENNA__1068__A2
*1092 ANTENNA__1068__C
*1093 ANTENNA__1069__A1
*1094 ANTENNA__1070__B
*1095 ANTENNA__1072__A1
*1096 ANTENNA__1072__B2
*1097 ANTENNA__1072__C
*1098 ANTENNA__1073__A2
*1099 ANTENNA__1074__A1
*1100 ANTENNA__1074__C
*1101 ANTENNA__1075__A2
*1102 ANTENNA__1077__I
*1103 ANTENNA__1086__B2
*1104 ANTENNA__1089__B2
*1105 ANTENNA__1108__I
*1106 ANTENNA__1110__A2
*1107 ANTENNA__1113__A2
*1108 ANTENNA__1124__A2
*1109 ANTENNA__1136__A2
*1110 ANTENNA__1146__I
*1111 ANTENNA__1163__I
*1112 ANTENNA__1167__I0
*1113 ANTENNA__1169__A1
*1114 ANTENNA__1170__A1
*1115 ANTENNA__1190__A1
*1116 ANTENNA__1193__A1
*1117 ANTENNA__1193__A2
*1118 ANTENNA__1195__I0
*1119 ANTENNA__1195__S
*1120 ANTENNA__1197__A1
*1121 ANTENNA__1197__A2
*1122 ANTENNA__1198__B
*1123 ANTENNA__1199__I0
*1124 ANTENNA__1199__S
*1125 ANTENNA__1202__I0
*1126 ANTENNA__1205__A2
*1127 ANTENNA__1208__I0
*1128 ANTENNA__1211__CLK
*1129 ANTENNA__1212__CLK
*1130 ANTENNA__1212__D
*1131 ANTENNA__1213__CLK
*1132 ANTENNA__1217__CLK
*1133 ANTENNA__1218__CLK
*1134 ANTENNA__1219__CLK
*1135 ANTENNA__1222__CLK
*1136 ANTENNA__1228__CLK
*1137 ANTENNA__1229__CLK
*1138 ANTENNA__1230__CLK
*1139 ANTENNA__1231__CLK
*1140 ANTENNA__1232__CLK
*1141 ANTENNA__1233__CLK
*1142 ANTENNA__1234__CLK
*1143 ANTENNA__1235__CLK
*1144 ANTENNA__1236__CLK
*1145 ANTENNA__1237__CLK
*1146 ANTENNA__1238__CLK
*1147 ANTENNA__1239__CLK
*1148 ANTENNA__1240__CLK
*1149 ANTENNA__1241__CLK
*1150 ANTENNA__1242__CLK
*1151 ANTENNA__1243__CLK
*1152 ANTENNA__1244__CLK
*1153 ANTENNA__1245__CLK
*1154 ANTENNA__1246__CLK
*1155 ANTENNA__1247__CLK
*1156 ANTENNA__1248__CLK
*1157 ANTENNA__1249__CLK
*1158 ANTENNA__1250__CLK
*1159 ANTENNA__1251__CLK
*1160 ANTENNA__1251__D
*1161 ANTENNA__1252__CLK
*1162 ANTENNA__1252__D
*1163 ANTENNA__1253__CLK
*1164 ANTENNA__1253__D
*1165 ANTENNA__1254__CLK
*1166 ANTENNA__1254__D
*1167 ANTENNA__1255__CLK
*1168 ANTENNA__1255__D
*1169 ANTENNA__1256__CLK
*1170 ANTENNA__1256__D
*1171 ANTENNA__1257__CLK
*1172 ANTENNA__1258__CLK
*1173 ANTENNA__1259__CLK
*1174 ANTENNA__1260__CLK
*1175 ANTENNA__1261__CLK
*1176 ANTENNA__1262__CLK
*1177 ANTENNA__1263__CLK
*1178 ANTENNA__1264__CLK
*1179 ANTENNA__1265__CLK
*1180 ANTENNA__1266__CLK
*1181 ANTENNA__1267__CLK
*1182 ANTENNA__1268__CLK
*1183 ANTENNA__1269__CLK
*1184 ANTENNA__1270__CLK
*1185 ANTENNA__1271__CLK
*1186 ANTENNA_clkbuf_0_wb_clk_i_I
*1187 ANTENNA_clkbuf_3_0__f_wb_clk_i_I
*1188 ANTENNA_clkbuf_3_1__f_wb_clk_i_I
*1189 ANTENNA_clkbuf_3_2__f_wb_clk_i_I
*1190 ANTENNA_clkbuf_3_3__f_wb_clk_i_I
*1191 ANTENNA_clkbuf_3_4__f_wb_clk_i_I
*1192 ANTENNA_clkbuf_3_5__f_wb_clk_i_I
*1193 ANTENNA_clkbuf_3_6__f_wb_clk_i_I
*1194 ANTENNA_clkbuf_3_7__f_wb_clk_i_I
*1195 ANTENNA_input10_I
*1196 ANTENNA_input11_I
*1197 ANTENNA_input12_I
*1198 ANTENNA_input13_I
*1199 ANTENNA_input1_I
*1200 ANTENNA_input2_I
*1201 ANTENNA_input3_I
*1202 ANTENNA_input4_I
*1203 ANTENNA_input5_I
*1204 ANTENNA_input6_I
*1205 ANTENNA_input7_I
*1206 ANTENNA_input8_I
*1207 ANTENNA_input9_I
*1208 ANTENNA_output14_I
*1209 ANTENNA_output15_I
*1210 ANTENNA_output16_I
*1211 ANTENNA_output17_I
*1212 ANTENNA_output18_I
*1213 ANTENNA_output19_I
*1214 ANTENNA_output20_I
*1215 FILLER_0_0_1022
*1216 FILLER_0_0_104
*1217 FILLER_0_0_1056
*1218 FILLER_0_0_1090
*1219 FILLER_0_0_1124
*1220 FILLER_0_0_1158
*1221 FILLER_0_0_1192
*1222 FILLER_0_0_1226
*1223 FILLER_0_0_1260
*1224 FILLER_0_0_1294
*1225 FILLER_0_0_1328
*1226 FILLER_0_0_1362
*1227 FILLER_0_0_138
*1228 FILLER_0_0_1396
*1229 FILLER_0_0_1430
*1230 FILLER_0_0_1464
*1231 FILLER_0_0_1498
*1232 FILLER_0_0_1532
*1233 FILLER_0_0_1566
*1234 FILLER_0_0_1600
*1235 FILLER_0_0_1634
*1236 FILLER_0_0_1668
*1237 FILLER_0_0_1702
*1238 FILLER_0_0_172
*1239 FILLER_0_0_1736
*1240 FILLER_0_0_1770
*1241 FILLER_0_0_1804
*1242 FILLER_0_0_1838
*1243 FILLER_0_0_1872
*1244 FILLER_0_0_1906
*1245 FILLER_0_0_1940
*1246 FILLER_0_0_1974
*1247 FILLER_0_0_2
*1248 FILLER_0_0_2008
*1249 FILLER_0_0_2042
*1250 FILLER_0_0_206
*1251 FILLER_0_0_2076
*1252 FILLER_0_0_2110
*1253 FILLER_0_0_2144
*1254 FILLER_0_0_2178
*1255 FILLER_0_0_2212
*1256 FILLER_0_0_2246
*1257 FILLER_0_0_2280
*1258 FILLER_0_0_2314
*1259 FILLER_0_0_2348
*1260 FILLER_0_0_2382
*1261 FILLER_0_0_240
*1262 FILLER_0_0_2416
*1263 FILLER_0_0_2450
*1264 FILLER_0_0_2484
*1265 FILLER_0_0_2518
*1266 FILLER_0_0_2552
*1267 FILLER_0_0_2586
*1268 FILLER_0_0_2620
*1269 FILLER_0_0_2654
*1270 FILLER_0_0_2688
*1271 FILLER_0_0_2722
*1272 FILLER_0_0_274
*1273 FILLER_0_0_2756
*1274 FILLER_0_0_2790
*1275 FILLER_0_0_2824
*1276 FILLER_0_0_2858
*1277 FILLER_0_0_2892
*1278 FILLER_0_0_2926
*1279 FILLER_0_0_2960
*1280 FILLER_0_0_2994
*1281 FILLER_0_0_3028
*1282 FILLER_0_0_3062
*1283 FILLER_0_0_308
*1284 FILLER_0_0_3096
*1285 FILLER_0_0_3130
*1286 FILLER_0_0_3164
*1287 FILLER_0_0_3198
*1288 FILLER_0_0_3232
*1289 FILLER_0_0_3266
*1290 FILLER_0_0_3300
*1291 FILLER_0_0_3334
*1292 FILLER_0_0_3368
*1293 FILLER_0_0_3402
*1294 FILLER_0_0_342
*1295 FILLER_0_0_3436
*1296 FILLER_0_0_3470
*1297 FILLER_0_0_3504
*1298 FILLER_0_0_3538
*1299 FILLER_0_0_3572
*1300 FILLER_0_0_36
*1301 FILLER_0_0_3606
*1302 FILLER_0_0_3640
*1303 FILLER_0_0_3674
*1304 FILLER_0_0_3708
*1305 FILLER_0_0_3724
*1306 FILLER_0_0_3732
*1307 FILLER_0_0_3736
*1308 FILLER_0_0_3756
*1309 FILLER_0_0_376
*1310 FILLER_0_0_3772
*1311 FILLER_0_0_3776
*1312 FILLER_0_0_3810
*1313 FILLER_0_0_3844
*1314 FILLER_0_0_3878
*1315 FILLER_0_0_3912
*1316 FILLER_0_0_3946
*1317 FILLER_0_0_3980
*1318 FILLER_0_0_4014
*1319 FILLER_0_0_4048
*1320 FILLER_0_0_4082
*1321 FILLER_0_0_410
*1322 FILLER_0_0_4116
*1323 FILLER_0_0_4150
*1324 FILLER_0_0_4184
*1325 FILLER_0_0_4218
*1326 FILLER_0_0_4252
*1327 FILLER_0_0_4286
*1328 FILLER_0_0_4320
*1329 FILLER_0_0_4354
*1330 FILLER_0_0_4388
*1331 FILLER_0_0_4422
*1332 FILLER_0_0_444
*1333 FILLER_0_0_4456
*1334 FILLER_0_0_4490
*1335 FILLER_0_0_4524
*1336 FILLER_0_0_4558
*1337 FILLER_0_0_4592
*1338 FILLER_0_0_4626
*1339 FILLER_0_0_4660
*1340 FILLER_0_0_4694
*1341 FILLER_0_0_4728
*1342 FILLER_0_0_4762
*1343 FILLER_0_0_478
*1344 FILLER_0_0_4796
*1345 FILLER_0_0_4830
*1346 FILLER_0_0_4864
*1347 FILLER_0_0_4898
*1348 FILLER_0_0_4932
*1349 FILLER_0_0_4966
*1350 FILLER_0_0_512
*1351 FILLER_0_0_546
*1352 FILLER_0_0_580
*1353 FILLER_0_0_614
*1354 FILLER_0_0_648
*1355 FILLER_0_0_682
*1356 FILLER_0_0_70
*1357 FILLER_0_0_716
*1358 FILLER_0_0_750
*1359 FILLER_0_0_784
*1360 FILLER_0_0_818
*1361 FILLER_0_0_852
*1362 FILLER_0_0_886
*1363 FILLER_0_0_920
*1364 FILLER_0_0_954
*1365 FILLER_0_0_988
*1366 FILLER_0_100_101
*1367 FILLER_0_100_1011
*1368 FILLER_0_100_1017
*1369 FILLER_0_100_107
*1370 FILLER_0_100_1081
*1371 FILLER_0_100_1087
*1372 FILLER_0_100_1151
*1373 FILLER_0_100_1157
*1374 FILLER_0_100_1221
*1375 FILLER_0_100_1227
*1376 FILLER_0_100_1291
*1377 FILLER_0_100_1297
*1378 FILLER_0_100_1361
*1379 FILLER_0_100_1367
*1380 FILLER_0_100_1431
*1381 FILLER_0_100_1437
*1382 FILLER_0_100_1501
*1383 FILLER_0_100_1507
*1384 FILLER_0_100_1571
*1385 FILLER_0_100_1577
*1386 FILLER_0_100_1641
*1387 FILLER_0_100_1647
*1388 FILLER_0_100_171
*1389 FILLER_0_100_1711
*1390 FILLER_0_100_1717
*1391 FILLER_0_100_177
*1392 FILLER_0_100_1781
*1393 FILLER_0_100_1787
*1394 FILLER_0_100_1851
*1395 FILLER_0_100_1857
*1396 FILLER_0_100_1921
*1397 FILLER_0_100_1927
*1398 FILLER_0_100_1991
*1399 FILLER_0_100_1997
*1400 FILLER_0_100_2
*1401 FILLER_0_100_2061
*1402 FILLER_0_100_2067
*1403 FILLER_0_100_2131
*1404 FILLER_0_100_2137
*1405 FILLER_0_100_2201
*1406 FILLER_0_100_2207
*1407 FILLER_0_100_2271
*1408 FILLER_0_100_2277
*1409 FILLER_0_100_2341
*1410 FILLER_0_100_2347
*1411 FILLER_0_100_241
*1412 FILLER_0_100_2411
*1413 FILLER_0_100_2417
*1414 FILLER_0_100_247
*1415 FILLER_0_100_2481
*1416 FILLER_0_100_2487
*1417 FILLER_0_100_2551
*1418 FILLER_0_100_2557
*1419 FILLER_0_100_2621
*1420 FILLER_0_100_2627
*1421 FILLER_0_100_2691
*1422 FILLER_0_100_2697
*1423 FILLER_0_100_2761
*1424 FILLER_0_100_2767
*1425 FILLER_0_100_2831
*1426 FILLER_0_100_2837
*1427 FILLER_0_100_2901
*1428 FILLER_0_100_2907
*1429 FILLER_0_100_2971
*1430 FILLER_0_100_2977
*1431 FILLER_0_100_3041
*1432 FILLER_0_100_3047
*1433 FILLER_0_100_311
*1434 FILLER_0_100_3111
*1435 FILLER_0_100_3117
*1436 FILLER_0_100_317
*1437 FILLER_0_100_3181
*1438 FILLER_0_100_3187
*1439 FILLER_0_100_3251
*1440 FILLER_0_100_3257
*1441 FILLER_0_100_3321
*1442 FILLER_0_100_3327
*1443 FILLER_0_100_3391
*1444 FILLER_0_100_3397
*1445 FILLER_0_100_34
*1446 FILLER_0_100_3461
*1447 FILLER_0_100_3467
*1448 FILLER_0_100_3531
*1449 FILLER_0_100_3537
*1450 FILLER_0_100_3601
*1451 FILLER_0_100_3607
*1452 FILLER_0_100_3671
*1453 FILLER_0_100_3677
*1454 FILLER_0_100_37
*1455 FILLER_0_100_3741
*1456 FILLER_0_100_3747
*1457 FILLER_0_100_381
*1458 FILLER_0_100_3811
*1459 FILLER_0_100_3817
*1460 FILLER_0_100_387
*1461 FILLER_0_100_3881
*1462 FILLER_0_100_3887
*1463 FILLER_0_100_3951
*1464 FILLER_0_100_3957
*1465 FILLER_0_100_4021
*1466 FILLER_0_100_4027
*1467 FILLER_0_100_4091
*1468 FILLER_0_100_4097
*1469 FILLER_0_100_4161
*1470 FILLER_0_100_4167
*1471 FILLER_0_100_4231
*1472 FILLER_0_100_4237
*1473 FILLER_0_100_4301
*1474 FILLER_0_100_4307
*1475 FILLER_0_100_4371
*1476 FILLER_0_100_4377
*1477 FILLER_0_100_4441
*1478 FILLER_0_100_4447
*1479 FILLER_0_100_451
*1480 FILLER_0_100_4511
*1481 FILLER_0_100_4517
*1482 FILLER_0_100_457
*1483 FILLER_0_100_4581
*1484 FILLER_0_100_4587
*1485 FILLER_0_100_4651
*1486 FILLER_0_100_4657
*1487 FILLER_0_100_4721
*1488 FILLER_0_100_4727
*1489 FILLER_0_100_4791
*1490 FILLER_0_100_4797
*1491 FILLER_0_100_4861
*1492 FILLER_0_100_4867
*1493 FILLER_0_100_4931
*1494 FILLER_0_100_4937
*1495 FILLER_0_100_4969
*1496 FILLER_0_100_4973
*1497 FILLER_0_100_521
*1498 FILLER_0_100_527
*1499 FILLER_0_100_591
*1500 FILLER_0_100_597
*1501 FILLER_0_100_661
*1502 FILLER_0_100_667
*1503 FILLER_0_100_731
*1504 FILLER_0_100_737
*1505 FILLER_0_100_801
*1506 FILLER_0_100_807
*1507 FILLER_0_100_871
*1508 FILLER_0_100_877
*1509 FILLER_0_100_941
*1510 FILLER_0_100_947
*1511 FILLER_0_101_1046
*1512 FILLER_0_101_1052
*1513 FILLER_0_101_1116
*1514 FILLER_0_101_1122
*1515 FILLER_0_101_1186
*1516 FILLER_0_101_1192
*1517 FILLER_0_101_1256
*1518 FILLER_0_101_1262
*1519 FILLER_0_101_1326
*1520 FILLER_0_101_1332
*1521 FILLER_0_101_136
*1522 FILLER_0_101_1396
*1523 FILLER_0_101_1402
*1524 FILLER_0_101_142
*1525 FILLER_0_101_1466
*1526 FILLER_0_101_1472
*1527 FILLER_0_101_1536
*1528 FILLER_0_101_1542
*1529 FILLER_0_101_1606
*1530 FILLER_0_101_1612
*1531 FILLER_0_101_1676
*1532 FILLER_0_101_1682
*1533 FILLER_0_101_1746
*1534 FILLER_0_101_1752
*1535 FILLER_0_101_1816
*1536 FILLER_0_101_1822
*1537 FILLER_0_101_1886
*1538 FILLER_0_101_1892
*1539 FILLER_0_101_1956
*1540 FILLER_0_101_1962
*1541 FILLER_0_101_2
*1542 FILLER_0_101_2026
*1543 FILLER_0_101_2032
*1544 FILLER_0_101_206
*1545 FILLER_0_101_2096
*1546 FILLER_0_101_2102
*1547 FILLER_0_101_212
*1548 FILLER_0_101_2166
*1549 FILLER_0_101_2172
*1550 FILLER_0_101_2236
*1551 FILLER_0_101_2242
*1552 FILLER_0_101_2306
*1553 FILLER_0_101_2312
*1554 FILLER_0_101_2376
*1555 FILLER_0_101_2382
*1556 FILLER_0_101_2446
*1557 FILLER_0_101_2452
*1558 FILLER_0_101_2516
*1559 FILLER_0_101_2522
*1560 FILLER_0_101_2586
*1561 FILLER_0_101_2592
*1562 FILLER_0_101_2656
*1563 FILLER_0_101_2662
*1564 FILLER_0_101_2726
*1565 FILLER_0_101_2732
*1566 FILLER_0_101_276
*1567 FILLER_0_101_2796
*1568 FILLER_0_101_2802
*1569 FILLER_0_101_282
*1570 FILLER_0_101_2866
*1571 FILLER_0_101_2872
*1572 FILLER_0_101_2936
*1573 FILLER_0_101_2942
*1574 FILLER_0_101_3006